Version 4
SHEET 1 2376 680
WIRE 928 -240 560 -240
WIRE 672 -160 480 -160
WIRE 928 -160 928 -240
WIRE 560 -64 560 -240
WIRE 480 -48 480 -160
WIRE 528 -48 480 -48
WIRE 672 -32 672 -160
WIRE 672 -32 592 -32
WIRE 704 -32 672 -32
WIRE 816 -32 768 -32
WIRE 848 -32 816 -32
WIRE 256 -16 32 -16
WIRE 464 -16 336 -16
WIRE 528 -16 464 -16
WIRE 928 0 928 -80
WIRE 976 0 928 0
WIRE 816 32 816 -32
WIRE 32 48 32 -16
WIRE 464 64 464 -16
WIRE 928 96 928 0
WIRE 32 160 32 128
WIRE 464 176 464 128
WIRE 816 176 816 112
WIRE 560 272 560 0
WIRE 928 272 928 176
WIRE 928 272 560 272
FLAG 32 160 0
FLAG 976 0 0
FLAG 816 176 0
FLAG 464 176 0
FLAG 848 -32 out
SYMBOL res 352 -32 R90
WINDOW 0 0 56 VBottom 2
WINDOW 3 32 56 VTop 2
SYMATTR InstName R1
SYMATTR Value 11k
SYMBOL cap 448 64 R0
SYMATTR InstName C1
SYMATTR Value 1p
SYMBOL cap 768 -48 R90
WINDOW 0 0 32 VBottom 2
WINDOW 3 32 32 VTop 2
SYMATTR InstName C2
SYMATTR Value 88µ
SYMBOL res 800 16 R0
SYMATTR InstName R2
SYMATTR Value 1.9k
SYMBOL voltage 928 -176 R0
WINDOW 123 0 0 Left 0
WINDOW 39 0 0 Left 0
SYMATTR InstName Vcc
SYMATTR Value 5
SYMBOL voltage 928 80 R0
WINDOW 123 0 0 Left 0
WINDOW 39 0 0 Left 0
SYMATTR InstName -Vcc
SYMATTR Value 5
SYMBOL voltage 32 32 R0
WINDOW 123 24 124 Left 2
WINDOW 39 0 0 Left 0
SYMATTR Value2 AC 1
SYMATTR InstName V1
SYMATTR Value SINE(0.5 0.5 1meg)
SYMBOL Opamps\\LT1007 560 -96 R0
SYMATTR InstName U1
TEXT -32 224 Left 2 ;DDS simulation
TEXT 1040 240 Left 2 ;Error calculation
TEXT 1232 64 Left 2 !.meas maxerr MAX V(error)
TEXT 1232 88 Left 2 !.meas avgerr AVG V(error)
TEXT 1232 112 Left 2 !.meas err_rms RMS V(error)
TEXT 1232 160 Left 2 !.meas ppout PP V(out)
TEXT 1232 184 Left 2 !.meas avgout AVG V(out)
TEXT 1232 216 Left 2 !.meas rms_out RMS V(out)
TEXT 1232 248 Left 2 !.meas rms_outA param rms_out*sqrt(2)
TEXT 248 -288 Left 2 !.ac lin 100 1e-3 50meg
TEXT 240 -192 Left 2 !;tran 10u
RECTANGLE Normal 128 208 -64 -48 2
RECTANGLE Normal 1200 224 1008 -32 2
