Version 4
SHEET 1 1816 680
WIRE 528 -256 496 -256
WIRE 496 -208 496 -256
WIRE 1152 -176 576 -176
WIRE 1552 -176 1152 -176
WIRE 1168 -128 1072 -128
WIRE 496 -96 496 -128
WIRE 560 -96 496 -96
WIRE 688 -96 640 -96
WIRE 944 -80 816 -80
WIRE 1072 -80 1072 -128
WIRE 1072 -80 1024 -80
WIRE 1088 -80 1072 -80
WIRE 1552 -64 1552 -176
WIRE 576 0 576 -176
WIRE 1152 0 1152 -176
WIRE 496 16 496 -96
WIRE 544 16 496 16
WIRE 1088 16 1088 -80
WIRE 1120 16 1088 16
WIRE 688 32 688 -96
WIRE 688 32 608 32
WIRE 720 32 688 32
WIRE 800 32 720 32
WIRE 1248 32 1248 -128
WIRE 1248 32 1184 32
WIRE 1280 32 1248 32
WIRE 112 48 32 48
WIRE 224 48 192 48
WIRE 256 48 224 48
WIRE 480 48 336 48
WIRE 544 48 480 48
WIRE 1120 48 1104 48
WIRE 800 64 800 32
WIRE 832 64 800 64
WIRE 928 64 896 64
WIRE 976 64 928 64
WIRE 1088 64 1040 64
WIRE 1104 64 1104 48
WIRE 1104 64 1088 64
WIRE 1088 96 1088 64
WIRE 1552 96 1552 16
WIRE 1600 96 1552 96
WIRE 32 112 32 48
WIRE 224 112 224 48
WIRE 480 128 480 48
WIRE 928 144 928 64
WIRE 272 176 224 176
WIRE 1552 192 1552 96
WIRE 1088 208 1088 176
WIRE 32 224 32 192
WIRE 1248 224 1248 32
WIRE 1248 224 928 224
WIRE 480 240 480 192
WIRE 272 288 272 176
WIRE 688 288 688 32
WIRE 688 288 272 288
WIRE 576 336 576 64
WIRE 1152 336 1152 64
WIRE 1152 336 576 336
WIRE 1552 336 1552 272
WIRE 1552 336 1152 336
FLAG 32 224 0
FLAG 1600 96 0
FLAG 480 240 0
FLAG 528 -256 0
FLAG 720 32 out1
FLAG 816 -80 0
FLAG 1088 208 0
FLAG 1280 32 out
SYMBOL res 352 32 R90
WINDOW 0 0 56 VBottom 2
WINDOW 3 32 56 VTop 2
SYMATTR InstName R1
SYMATTR Value 1k
SYMBOL cap 464 128 R0
SYMATTR InstName C1
SYMATTR Value 11p
SYMBOL voltage 1552 -80 R0
WINDOW 123 0 0 Left 0
WINDOW 39 0 0 Left 0
SYMATTR InstName Vcc
SYMATTR Value 5
SYMBOL voltage 1552 176 R0
WINDOW 123 0 0 Left 0
WINDOW 39 0 0 Left 0
SYMATTR InstName -Vcc
SYMATTR Value 5
SYMBOL voltage 32 96 R0
WINDOW 123 24 124 Left 2
WINDOW 39 0 0 Left 0
SYMATTR Value2 AC 1
SYMATTR InstName V1
SYMATTR Value SINE(0.5 0.5 1meg)
SYMBOL Opamps\\LT1007 576 -32 R0
SYMATTR InstName U1
SYMBOL res 480 -224 R0
SYMATTR InstName R3
SYMATTR Value 1k
SYMBOL res 544 -112 M90
WINDOW 0 0 56 VBottom 2
WINDOW 3 32 56 VTop 2
SYMATTR InstName R4
SYMATTR Value 1k
SYMBOL res 208 32 R90
WINDOW 0 0 56 VBottom 2
WINDOW 3 32 56 VTop 2
SYMATTR InstName R5
SYMATTR Value 1k
SYMBOL Opamps\\LT1007 1152 -32 R0
SYMATTR InstName U2
SYMBOL cap 896 48 R90
WINDOW 0 0 32 VBottom 2
WINDOW 3 32 32 VTop 2
SYMATTR InstName C2
SYMATTR Value 112p
SYMBOL cap 1040 48 R90
WINDOW 0 0 32 VBottom 2
WINDOW 3 32 32 VTop 2
SYMATTR InstName C3
SYMATTR Value 112p
SYMBOL cap 208 112 R0
SYMATTR InstName C4
SYMATTR Value 22p
SYMBOL res 912 128 R0
SYMATTR InstName R2
SYMATTR Value 20k
SYMBOL res 1072 80 R0
SYMATTR InstName R6
SYMATTR Value 10k
SYMBOL res 1040 -96 R90
WINDOW 0 0 56 VBottom 2
WINDOW 3 32 56 VTop 2
SYMATTR InstName R7
SYMATTR Value 1k
SYMBOL res 1264 -144 R90
WINDOW 0 0 56 VBottom 2
WINDOW 3 32 56 VTop 2
SYMATTR InstName R8
SYMATTR Value 1k
TEXT -112 -304 Left 2 !.ac lin 100 10 100meg
TEXT -32 288 Left 2 ;DDS simulation
TEXT 1352 -480 Left 2 !.meas maxerr MAX V(error)
TEXT 1352 -456 Left 2 !.meas avgerr AVG V(error)
TEXT 1352 -432 Left 2 !.meas err_rms RMS V(error)
TEXT 1360 -392 Left 2 !.meas ppout PP V(out)
TEXT 1360 -368 Left 2 !.meas avgout AVG V(out)
TEXT 1360 -304 Left 2 !.meas rms_out RMS V(out)
TEXT 1368 -344 Left 2 !.meas rms_outA param rms_out*sqrt(2)
TEXT 1144 -520 Left 2 ;Error calculation
TEXT -96 -352 Left 2 !;tran 10u
RECTANGLE Normal 128 272 -64 16 2
RECTANGLE Normal 1344 -288 1152 -496 2
